Version 4
SHEET 1 5552 1448
WIRE -336 192 -512 192
WIRE -336 240 -336 192
WIRE -336 416 -336 320
WIRE -512 432 -512 192
WIRE -512 432 -784 432
WIRE -784 576 -784 432
WIRE -512 576 -512 432
WIRE -512 720 -512 656
WIRE -336 720 -512 720
WIRE -96 720 -272 720
WIRE 32 720 -96 720
WIRE -512 768 -512 720
WIRE -512 800 -512 768
WIRE -992 848 -1088 848
WIRE -928 848 -944 848
WIRE -784 848 -784 656
WIRE -784 848 -928 848
WIRE -592 848 -784 848
WIRE -576 848 -592 848
WIRE -512 928 -512 896
WIRE -512 976 -512 928
WIRE -96 992 -96 720
WIRE -784 1056 -784 848
WIRE -512 1104 -512 1056
WIRE -304 1104 -512 1104
WIRE -512 1168 -512 1104
WIRE -304 1200 -304 1104
WIRE -784 1328 -784 1136
WIRE -512 1328 -512 1248
WIRE -512 1328 -784 1328
WIRE -304 1328 -304 1264
WIRE -304 1328 -512 1328
WIRE -96 1328 -96 1072
WIRE -96 1328 -304 1328
WIRE -512 1408 -512 1328
FLAG -512 1408 0
FLAG -336 416 0
FLAG 32 720 Vout
IOPIN 32 720 Out
FLAG -592 848 VB
FLAG -512 928 VE
FLAG -512 768 VC
SYMBOL res -800 560 R0
SYMATTR InstName R1
SYMATTR Value 330k
SYMBOL res -800 1040 R0
SYMATTR InstName R2
SYMATTR Value 150k
SYMBOL res -528 1152 R0
SYMATTR InstName R3
SYMATTR Value 560
SYMBOL res -528 960 R0
SYMATTR InstName R4
SYMATTR Value 39
SYMBOL res -528 560 R0
SYMATTR InstName R5
SYMATTR Value 1.2k
SYMBOL cap -928 832 R90
WINDOW 0 0 32 VBottom 2
WINDOW 3 32 32 VTop 2
SYMATTR InstName C1
SYMATTR Value 47µ
SYMBOL cap -272 704 R90
WINDOW 0 0 32 VBottom 2
WINDOW 3 32 32 VTop 2
SYMATTR InstName C2
SYMATTR Value 47µ
SYMBOL cap -288 1264 R180
WINDOW 0 24 56 Left 2
WINDOW 3 24 8 Left 2
SYMATTR InstName C3
SYMATTR Value 47µ
SYMBOL res -112 976 R0
SYMATTR InstName R6
SYMATTR Value 12k
SYMBOL npn -576 800 R0
SYMATTR InstName Q1
SYMATTR Value BC639
SYMBOL voltage -336 224 R0
WINDOW 123 0 0 Left 0
WINDOW 39 0 0 Left 0
SYMATTR InstName V1
SYMATTR Value 12
TEXT -1080 120 Left 2 !.MODEL BC639 NPN IS=6.119E-14 NF=0.9948 ISE=5.844f NE=1.469 BF=130.4 IKF=0.8 VAF=54.27 NR=0.9905 ISC=1.342E-13 NC=1.183 BR=14.53 IKR=0.2049 VAR=30 RB=0.5 IRB=1E-06 RBM=0.5 RE=0.1114 RC=0.082 XTB=0 EG=1.11 XTI=3 CJE=1.234E-10 VJE=0.6917 MJE=0.338 TF=6.543E-10 XTF=223.8 VTF=1.892 ITF=10 CJC=3.49E-11 VJC=0.5 MJC=0.388 XCJC=0.15 TR=10n FC=0.9232
TEXT -1080 80 Left 2 !.MODEL BC640 PNP IS=6.1530E-14 NF=0.9911 ISE=1.382E-16 NE=1.089 BF=150.8 IKF=1.225 VAF=105.4 NR=0.9965 ISC=6.480f NC=1.022 BR=8.074 IKR=0.3627 VAR=18.20 RB=2 IRB=1E-06 RBM=2 RE=5.562E-02 RC=0.1449 XTB=0 EG=1.11 XTI=3 CJE=1.157E-10 VJE=0.7300 MJE=0.3751 TF=8.666E-10 XTF=1.231 VTF=3.008 ITF=0.4581 CJC=5.264E-11 VJC=0.6591 MJC=0.4533 XCJC=0.4401 TR=2.75E-07 FC=0.9427
TEXT -1090 1432 Left 2 !.tran 1u
